*Heading
** Job name: bondedAnchor Model name: Model-1
** Generated by: Abaqus/CAE 2019
**
** Global preprint options:
**  - echo=NO      : do not echo the input file to the .dat file
**  - model=NO     : do not print full model definition
**  - history=NO   : do not print history output definitions
**  - contact=NO   : do not print contact definitions
*Preprint, echo=NO, model=NO, history=NO, contact=NO

**
** ============================================================
** PART DEFINITIONS
** ============================================================
**
** Each *Part defines geometry, mesh, sections, and orientations
** independently before being assembled later.
**

*Part, name=concrete
** Import the concrete mesh from an external input file
*Include, input="./mesh/concrete.inp"

** Assign a solid (continuum) section to the concrete elements
**  - elset=concrete : element set defined in the included mesh
**  - material=concrete : material defined later
*Solid Section, elset=concrete, material=concrete
*End Part

** ------------------------------------------------------------

*Part, name=steel
** Import the steel mesh (plate + anchor)
*Include, input="./mesh/steel.inp"

** Assign material to the steel plate elements
*Solid Section, elset=PLATE, material=STEEL_PLATE

** Assign material to the steel anchor elements
*Solid Section, elset=ANCHOR, material=STEEL_ANCHOR

** Define a cylindrical local coordinate system
** This is later used for the cohesive (mortar) behavior
*ORIENTATION, name=MORTAR_CYL, SYSTEM=CYLINDRICAL
0, 0, 0,   0, 1, 0
**
** First point: origin of the coordinate system
** Second point: direction of the cylinder axis

** ------------------------------------------------------------
** Cohesive section for the mortar layer
** ------------------------------------------------------------
**  - elset=MORTAR : cohesive elements
**  - material=stick_slip : traction–separation law
**  - response=TRACTION SEPARATION : cohesive formulation
**  - ORIENTATION=MORTAR_CYL : defines normal and shear directions
**  - STACK DIRECTION=ORIENTATION : thickness direction follows orientation
*COHESIVE SECTION, elset=MORTAR, material=stick_slip, response=TRACTION SEPARATION, ORIENTATION=MORTAR_CYL, STACK DIRECTION=ORIENTATION
*End Part

**
** ============================================================
** ASSEMBLY
** ============================================================
**
** The assembly instantiates parts and defines interactions
**

*Assembly, name=Assembly
** Create an instance of the concrete part
*Instance, name=concrete-1, part=concrete
*End Instance
** Create an instance of the steel part
*Instance, name=steel-1, part=steel
*End Instance
** ------------------------------------------------------------
** TIE CONSTRAINTS
** ------------------------------------------------------------
** Tie constraints enforce perfect bonding (no slip, no separation)
** between specified master and slave surfaces.
**
** Tie anchor to steel plate
** Tie anchor to mortar
** Tie mortar to concrete
*TIE, NAME=ANCHOR_TO_PLATE, ADJUST=NO, TYPE=SURFACE TO SURFACE
steel-1.anchor_to_plate, steel-1.plate_to_anchor
*TIE, NAME=ANCHOR_TO_MORTAR, ADJUST=NO, TYPE=SURFACE TO SURFACE
steel-1.mortar_to_anchor, steel-1.anchor_to_mortar
*TIE, NAME=MORTAR_TO_CONCRETE, ADJUST=NO, TYPE=SURFACE TO SURFACE
concrete-1.concrete_to_mortar, steel-1.mortar_to_concrete
*End Assembly
**
** ============================================================
** MATERIAL DEFINITIONS
** ============================================================
**
*Material, name=STEEL_ANCHOR
** Linear elastic steel properties
** Density (mass units consistent with model units)
*Elastic
200000., 0.3
*DENSITY
7.85e-9
*Material, name=STEEL_PLATE
*Elastic
200000., 0.3
*DENSITY
7.85e-9
*Material, name=CONCRETE
** Simplified linear elastic concrete model
*Elastic
2e2, 0.3
*DENSITY
2.4e-9
** ------------------------------------------------------------
** Cohesive (stick–slip) material for mortar
** ------------------------------------------------------------
*Material, name=stick_slip
** Elastic traction–separation stiffness
** Damage initiates when maximum stress is exceeded
** Damage evolves based on relative displacement
** Normal, shear-1, shear-2 stiffness values
*Elastic, type=TRACTION
6e2, 3e2, 3e2
*DENSITY
3.0e-9
**
** ============================================================
** CONTACT INTERACTIONS
** ============================================================
**
*Surface Interaction, name="steel concrete"
** Hard contact in the normal direction
*Surface Behavior, DIRECT, pressure-overclosure=HARD
** Define surface-to-surface contact pair
*Contact Pair, interaction="steel concrete", type=SURFACE TO SURFACE
steel-1.PLATE_BOTTOM, concrete-1.CONCRETE_TOP 
**
** ============================================================
** BOUNDARY CONDITIONS
** ============================================================
**
** Fully constrain outer concrete boundaries (encastre-like behavior)
*Boundary
concrete-1.left,   1, 1
concrete-1.left,   2, 2
concrete-1.left,   3, 3
concrete-1.right,  1, 1
concrete-1.right,  2, 2
concrete-1.right,  3, 3
concrete-1.back,   1, 1
concrete-1.back,   2, 2
concrete-1.back,   3, 3
concrete-1.bottom,1, 1
concrete-1.bottom,2, 2
concrete-1.bottom,3, 3

** Symmetry boundary conditions in Z-direction
*Boundary
steel-1.z_symm, zSYMM
concrete-1.z_symm, zSYMM

** Fix plate movement in X-direction except where loaded
steel-1.plate_left_loading, 1, 1

**
** ============================================================
** ANALYSIS STEP
** ============================================================
**

*Step, name=loading, nlgeom=no, inc=100000
** Quasi-static dynamic step (often used for convergence robustness)
*Dynamic, APPLICATION=QUASI-STATIC
0.0001, 1, 1e-08, 0.01

**
** Apply displacement-controlled loading
**
*Boundary, type=displacement
steel-1.plate_left_loading, 1, 1, 5

**
** ============================================================
** OUTPUT REQUESTS
** ============================================================
**

** Print contact information to the .dat file
*Print, contact=yes

** Write restart files every increment
*Restart, write, frequency=1, overlay

** Include external output request files
*Include, input="./incfiles/output.inc"
*Include, input="./incfiles/fileOutput.inc"

*End Step

