*Heading
** Job name: headedStud Model name: Model-1
** Generated by: Abaqus/CAE 2019
*Preprint, echo=NO, model=NO, history=NO, contact=NO
**
** UEL
**
*Include, input="./incfiles/ueldef.inc"
**
** PARTS
**
*Part, name=concrete
*Include, input="./mesh/modified/concrete.inp"
*Solid Section, elset=dummy, material=dummy
*End Part
**  
*Part, name=steel
*Include, input="./mesh/modified/steel.inp"
*Solid Section, elset=PLATE, material=STEEL_PLATE
*Solid Section, elset=ANCHOR, material=STEEL_ANCHOR
*ORIENTATION, name=MORTAR_CYL, SYSTEM=CYLINDRICAL
0, 0, 0, 0, 1, 0
**
** Cohesive Section
*COHESIVE SECTION, elset=MORTAR, material=stick_slip, response=TRACTION SEPARATION, ORIENTATION=MORTAR_CYL, STACK DIRECTION=ORIENTATION
*End Part
**

** UEL Props
**
*Include, input="./incfiles/uelprops_GCDP.inc"
**

** ASSEMBLY
**
*Assembly, name=Assembly
**  
*Instance, name=concrete-1, part=concrete
*End Instance
**  
*Instance, name=steel-1, part=steel
*End Instance
**  
**TIE, NAME=ANCHOR_TO_PLATE, ADJUST=NO, TYPE=SURFACE TO SURFACE
**steel-1.anchor_to_plate, steel-1.plate_to_anchor
*TIE, NAME=ANCHOR_TO_MORTAR, ADJUST=NO, TYPE=SURFACE TO SURFACE
steel-1.mortar_to_anchor, steel-1.anchor_to_mortar
*TIE, NAME=MORTAR_TO_CONCRETE, ADJUST=NO, TYPE=SURFACE TO SURFACE
concrete-1.concrete_to_mortar, steel-1.mortar_to_concrete
*End Assembly
**  

** MATERIALS
** 
*Material, name=STEEL_ANCHOR
*Elastic
200000., 0.3
*DENSITY
7.85e-8
*Material, name=STEEL_PLATE
*Elastic
200000., 0.3
*DENSITY
7.85e-8
*Material, name=dummy
*Elastic
1e-12, 0.3
*DENSITY
2.4e-8
**
*Material, name=stick_slip
*Elastic, type=TRACTION
5400, 2700, 2700
*DENSITY
2e-8
** INTERACTION PROPERTIES
** 
*Surface Interaction, name="steel concrete"
*Surface Behavior, DIRECT, pressure-overclosure=HARD
*Contact Damping, DEFINITION=DAMPING COEFFICIENT
0.01, 1e-2, 0 
** 1e4,,
** *Surface Behavior, penalty
** 1e4,,
*Contact Pair, interaction="steel concrete", type=SURFACE TO SURFACE
steel-1.PLATE_BOTTOM, concrete-1.CONCRETE_TOP 
** *CONTACT FORMULATION, TYPE=SLIDING TRANSITION
** concrete-1.CONCRETE_TOP, steel-1.PLATE_BOTTOM, LINEAR SMOOTHING
** 
** BOUNDARY CONDITIONS
** 
** Name: concrete_xzSymm Type: Symmetry/Antisymmetry/Encastre
*Boundary
concrete-1.left, 1, 1
concrete-1.left, 2, 2
concrete-1.left, 3, 3
concrete-1.right, 1, 1
concrete-1.right, 2, 2
concrete-1.right, 3, 3
concrete-1.back, 1, 1
concrete-1.back, 2, 2
concrete-1.back, 3, 3
concrete-1.bottom, 1, 1
concrete-1.bottom, 2, 2
concrete-1.bottom, 3, 3
*Boundary
steel-1.z_symm, zSYMM
concrete-1.z_symm, zSYMM
steel-1.plate_left_loading, 1, 1
** 
** STEP: loading
** 
*Step, name=loading, nlgeom=no, inc=100000
*Dynamic, APPLICATION= QUASI-STATIC
0.0001, 1, 1e-08, 0.01
**
*NODE PRINT, NSET=STEEL-1.PLATE_LEFT_LOADING, FREQUENCY=1
RF
**
* **CONTACT CONTROLS, ABSOLUTE PENETRATION TOLERANCE=5e-2
** *CONTACT CONTROLS, STABILIZE
** 
** CONTROLS
** 
** *Controls, reset
** *Controls, parameters=time incrementation
** 10, 15, , , , , , , , , 
** *Controls, parameters=line search
** 5, , , , 
** *Controls, parameters=field, field=displacement
** 0.001, 1e1, , , , , , 
** 
** BOUNDARY CONDITIONS
** 
** Name: load Type: Displacement/Rotation
*Boundary, type=displacement
steel-1.plate_left_loading, 1, 1, 10.0
** OUTPUT REQUESTS
** 
*Print, contact=yes
*Restart, write, frequency=1, overlay
*Include, input="./incfiles/output.inc"
*Include, input="./incfiles/fileOutput.inc"
*End Step
