*Heading
** Job name: headedStud Model name: Model-1
** Generated by: Abaqus/CAE 2019
*Preprint, echo=NO, model=NO, history=NO, contact=NO
**
** UEL
**
*Include, input="./incfiles/ueldef.inc"
**
** PARTS
**
*Part, name=concrete
*Include, input="./mesh/adaptive_v6/iteration_2/concrete.inp"
*Solid Section, elset=dummy, material=dummy
*End Part
**  
*Part, name=steel
*Include, input="./mesh/adaptive_v6/iteration_2/steel.inp"
*Solid Section, elset=STEEL, material=STEEL_PLATE
*ORIENTATION, name=MORTAR_CYL, SYSTEM=CYLINDRICAL
0, 0, 0, 0, 1, 0
1
**
** Cohesive Section
*COHESIVE SECTION, elset=MORTAR, material=stick_slip, response=TRACTION SEPARATION, ORIENTATION=MORTAR_CYL, STACK DIRECTION=ORIENTATION
*End Part
**
** UEL Props
**
*Include, input="./incfiles/uelprops_GCDP_RWW_batch_E1_l4.inc"
**
** ASSEMBLY
**
*Assembly, name=Assembly
**  
*Instance, name=concrete-1, part=concrete
*End Instance
**  
*Instance, name=steel-1, part=steel
,0.1
*End Instance
**  
*TIE, NAME=ANCHOR_TO_MORTAR,TYPE=SURFACE TO SURFACE, ADJUST=YES
steel-1.mortar_to_anchor, steel-1.anchor_to_mortar
*TIE, NAME=MORTAR_TO_CONCRETE,TYPE=SURFACE TO SURFACE, ADJUST=YES
concrete-1.concrete_to_mortar, steel-1.mortar_to_concrete
*End Assembly
**  
** MATERIALS
** 
*Material, name=STEEL_ANCHOR
*Elastic
200000., 0.3
** yield strength of 1080MPa:
** *Plastic
** 1080., 0.
*DENSITY
7.85e-8
*Material, name=STEEL_PLATE
*Elastic
200000., 0.3
** *Plastic
** 1080., 0.
*DENSITY
7.85e-8
*Material, name=dummy
*Elastic
1e-6, 0.3
*DENSITY
2.4e-8
**
*Material, name=stick_slip
*Elastic, type=TRACTION
5400, 2700, 2700
*DENSITY
2e-8
** INTERACTION PROPERTIES
** 
*Surface Interaction, name="steel concrete"
*Surface Behavior
** , pressure-overclosure=LINEAR
** 1e5
*Contact
*Contact Inclusions
steel-1.PLATE_BOTTOM, concrete-1.CONCRETE_TOP
*Contact Property Assignment
steel-1.PLATE_BOTTOM, concrete-1.CONCRETE_TOP, "steel concrete"
** 
** Name: concrete_xzSymm Type: Symmetry/Antisymmetry/Encastre
*Boundary
concrete-1.back_support, 2, 2
concrete-1.back_support, 1, 1
** concrete-1.bottom, 1, 1
concrete-1.bottom, 2, 2
** concrete-1.concrete_top, 2, 2
concrete-1.front_support, 1, 1
*Boundary
steel-1.z_symm, zSYMM
concrete-1.z_symm, zSYMM
steel-1.shear_loading, 1, 1
** 
** STEP: loading
** 
*Step, name=loading, nlgeom=no, inc=100000
** *Static
*dynamic
5e-4, 1, 1e-08, 5e-3
** *contactcontrols, lagrangemultiplier=No, stabilize
** *diagnostics, oldcontactcontrols=warning
*contact controls,  stabilize
1e-2
*Controls, parameters=TIME INCREMENTATION
10, 15 
*Controls, parameters=field, field=DISPLACEMENT
1e-2, 1,
**
** Name: load Type: Displacement
*Boundary, type=displacement
steel-1.shear_loading, 1, 1, 10.0
steel-1.shear_loading, 2, 2, 0.0
** OUTPUT REQUESTS
** 
*Print, contact=yes
*Restart, write, frequency=1, overlay
*Include, input="./incfiles/output.inc"
*Include, input="./incfiles/fileOutput.inc"
*End Step
