*Heading
** Job name: headedStud Model name: Model-1
** Generated by: Abaqus/CAE 2019
*Preprint, echo=NO, model=NO, history=NO, contact=NO
**
** UEL
**
*Include, input="./incfiles/ueldef.inc"
**
** PARTS
**
*Part, name=concrete
*Include, input="./mesh/adaptive_v6_modified_bcs/modified/concrete.inp"
*Solid Section, elset=dummy, material=dummy
*End Part
**  
*Part, name=steel
*Include, input="./mesh/adaptive_v6_modified_bcs/modified/steel.inp"
*Solid Section, elset=STEEL, material=STEEL_PLATE
*ORIENTATION, name=MORTAR_CYL, SYSTEM=CYLINDRICAL
0, 0, 0, 0, 1, 0
1
**
** Cohesive Section
*COHESIVE SECTION, elset=MORTAR, material=stick_slip, response=TRACTION SEPARATION, ORIENTATION=MORTAR_CYL, STACK DIRECTION=ORIENTATION
*End Part
** ----------------------------------------------------------------
** DISCRETE RIGID PLATES
** ----------------------------------------------------------------
*Part, name=TOP_PLATE
*Node
** Define a 2000x2000 plate at y = 0
  1, -360.0, 0.0001, -500.0
  2,  160.0, 0.0001, -500.0
  3,  160.0, 0.0001,  000.1
  4, -360.0, 0.0001,  000.1
** Reference Point
  999999, 0.0, 0.0, 0.0
*Element, type=R3D4
** Node order 1-2-3-4 yields normal in -Y (Downwards)
  1, 1, 2, 3, 4
*Nset, nset=RP_TOP
  999999,
*Elset, elset=PLATE_ELEM
  1,
*Surface, type=ELEMENT, name=SURF_TOP_PLATE
  PLATE_ELEM, SPOS
*Rigid Body, ref node=RP_TOP, elset=PLATE_ELEM
*End Part
**
*Part, name=BOTTOM_PLATE
*Node
** Define a 2000x2000 plate at y = -250
  1, -360.0, -300.0001, -500.0
  2, -360.0, -300.0001,  000.1
  3,  160.0, -300.0001,  000.1
  4,  160.0, -300.0001, -500.0
** Reference Point
  999999, 0.0, -300.0, 0.0
*Element, type=R3D4
** Node order 1-2-3-4 yields normal in +Y (Upwards)
  1, 1, 2, 3, 4
*Nset, nset=RP_BOTTOM
  999999,
*Elset, elset=PLATE_ELEM
  1,
*Surface, type=ELEMENT, name=SURF_BOTTOM_PLATE
  PLATE_ELEM, SPOS
*Rigid Body, ref node=RP_BOTTOM, elset=PLATE_ELEM
*End Part
** ----------------------------------------------------------------
**
** UEL Props
**
*Include, input="./incfiles/uelprops_GCDP_RWW_batch_E1_l4_As1.inc"
**
** ASSEMBLY
**
*Assembly, name=Assembly
**  
*Instance, name=concrete-1, part=concrete
*End Instance
**  
*Instance, name=steel-1, part=steel
,0.1
*End Instance
**  
*Instance, name=TOP_PLATE-1, part=TOP_PLATE
*End Instance
**
*Instance, name=BOTTOM_PLATE-1, part=BOTTOM_PLATE
*End Instance
*TIE, NAME=ANCHOR_TO_MORTAR,TYPE=SURFACE TO SURFACE, ADJUST=YES
steel-1.mortar_to_anchor, steel-1.anchor_to_mortar
*TIE, NAME=MORTAR_TO_CONCRETE,TYPE=SURFACE TO SURFACE, ADJUST=YES
concrete-1.concrete_to_mortar, steel-1.mortar_to_concrete
*End Assembly
*Material, name=STEEL_ANCHOR
*Elastic
200000., 0.3
*DENSITY
7.85e-8
*Material, name=STEEL_PLATE
*Elastic
200000., 0.3
*DENSITY
7.85e-8
*Material, name=dummy
*Elastic
1e-6, 0.3
*DENSITY
2.4e-8
**
*Material, name=stick_slip
*Elastic, type=TRACTION
5400, 2700, 2700
*DENSITY
2e-8
** INTERACTION PROPERTIES
*Surface Interaction, name="steel concrete"
*Surface Behavior, pressure-overclosure=HARD
**
*Surface Interaction, name="plate_friction"
*Surface Behavior, pressure-overclosure=HARD
*Contact
*Contact Inclusions
steel-1.PLATE_BOTTOM, concrete-1.CONCRETE_TOP
TOP_PLATE-1.SURF_TOP_PLATE, concrete-1.CONCRETE_TOP
BOTTOM_PLATE-1.SURF_BOTTOM_PLATE, concrete-1.bottom
*Contact Property Assignment
steel-1.PLATE_BOTTOM, concrete-1.CONCRETE_TOP, "steel concrete"
TOP_PLATE-1.SURF_TOP_PLATE, concrete-1.CONCRETE_TOP, "plate_friction"
BOTTOM_PLATE-1.SURF_BOTTOM_PLATE, concrete-1.bottom, "plate_friction"
*Boundary
concrete-1.front_support, 1, 1
**
** Lock the rigid plates in all 6 degrees of freedom
TOP_PLATE-1.RP_TOP, ENCASTRE
BOTTOM_PLATE-1.RP_BOTTOM, ENCASTRE
**
*Boundary
steel-1.z_symm, zSYMM
concrete-1.z_symm, zSYMM
steel-1.shear_loading, 1, 1
** STEP: loading
*Step, name=zero, nlgeom=no, inc=100000
*Static
0,0,0,0
*Restart, write, frequency=1, overlay
*Include, input="./incfiles/output.inc"
*Include, input="./incfiles/fileOutput.inc"
*end step
*Step, name=loading, nlgeom=no, inc=100000
*Dynamic
** *Static
5e-4, 1, 1e-08, 5e-3
**
*Boundary, type=displacement
steel-1.shear_loading, 1, 1, 10.0
*End Step
